*Heading
** Job name: xhex20_beam Model name: Model-1
** Generated by: Abaqus/CAE Student Edition 2021
*Preprint, echo=NO, model=NO, history=NO, contact=NO
**
** PARTS
**
*Part, name=Part-1
*Node
      1,        -100.,         -10.,           5.
      2,        -100.,           0.,           5.
      3,        -100.,          10.,           5.
      4,        -100.,         -10.,           0.
      5,        -100.,           0.,           0.
      6,        -100.,          10.,           0.
      7,         -90.,         -10.,           5.
      8,         -90.,           0.,           5.
      9,         -90.,          10.,           5.
     10,         -90.,         -10.,           0.
     11,         -90.,           0.,           0.
     12,         -90.,          10.,           0.
     13,         -80.,         -10.,           5.
     14,         -80.,           0.,           5.
     15,         -80.,          10.,           5.
     16,         -80.,         -10.,           0.
     17,         -80.,           0.,           0.
     18,         -80.,          10.,           0.
     19,         -70.,         -10.,           5.
     20,         -70.,           0.,           5.
** ... 373 like lines cut
*Element, type=C3D20R
 1,   7,   8,  11,  10,   1,   2,   5,   4, 130, 129, 128, 127, 131, 132, 133,
    134, 136, 135, 137, 138
 2,   8,   9,  12,  11,   2,   3,   6,   5, 141, 140, 139, 129, 142, 143, 144,
    132, 135, 145, 146, 137
 3,  13,  14,  17,  16,   7,   8,  11,  10, 150, 149, 148, 147, 130, 129, 128,
    127, 152, 151, 153, 154
 4,  14,  15,  18,  17,   8,   9,  12,  11, 157, 156, 155, 149, 141, 140, 139,
    129, 151, 158, 159, 153
 5,  19,  20,  23,  22,  13,  14,  17,  16, 163, 162, 161, 160, 150, 149, 148,
    147, 165, 164, 166, 167
 6,  20,  21,  24,  23,  14,  15,  18,  17, 170, 169, 168, 162, 157, 156, 155,
    149, 164, 171, 172, 166
 7,  25,  26,  29,  28,  19,  20,  23,  22, 176, 175, 174, 173, 163, 162, 161,
    160, 178, 177, 179, 180
 8,  26,  27,  30,  29,  20,  21,  24,  23, 183, 182, 181, 175, 170, 169, 168,
    162, 177, 184, 185, 179
 9,  31,  32,  35,  34,  25,  26,  29,  28, 189, 188, 187, 186, 176, 175, 174,
    173, 191, 190, 192, 193
10,  32,  33,  36,  35,  26,  27,  30,  29, 196, 195, 194, 188, 183, 182, 181,
    175, 190, 197, 198, 192
** ... 60 like lines cut
*Nset, nset=Set-1, generate
   1,  393,    1
*Elset, elset=Set-1, generate
  1,  40,   1
** Section: Section-1
*Solid Section, elset=Set-1, material=Material-1
,
*End Part
**  
**
** ASSEMBLY
**
*Assembly, name=Assembly
**  
*Instance, name=Part-1-1, part=Part-1
*End Instance
**  
*Nset, nset=Set-1, instance=Part-1-1
   1,   2,   3,   4,   5,   6, 131, 132, 133, 134, 142, 143, 144
*Elset, elset=Set-1, instance=Part-1-1
 1, 2
*End Assembly
** 
** MATERIALS
** 
*Material, name=Material-1
*Density
 2.7e-09,
*Elastic
68900., 0.35
** ----------------------------------------------------------------
** 
** STEP: Step-1
** 
*Step, name=Step-1, nlgeom=NO, perturbation
*Frequency, eigensolver=Lanczos, sim, acoustic coupling=on, normalization=mass
, , 4000., , , 
** 
** BOUNDARY CONDITIONS
** 
** Name: BC-1 Type: Displacement/Rotation
*Boundary
Set-1, 1, 1
Set-1, 2, 2
Set-1, 3, 3
Set-1, 4, 4
Set-1, 5, 5
Set-1, 6, 6
** 
** OUTPUT REQUESTS
** 
*Restart, write, frequency=0
** 
** FIELD OUTPUT: F-Output-1
** 
*Output, field, variable=PRESELECT
*End Step
