#
# Expected eigenfrequencies:
#
#	1: 91.278 - side to side
#	2: 407.58 - up and down
#	3: 569.90 - wobble side to side
#	4: 1588.3 - double wobble side to side
#	5: 1618.1 - twist
#	6: 2441.6 - wobble up and down
#	7: 3093.2 - tripple wobble side to side
#
#	Abaqus seems to include effects of rotational inertia
#	in the mass distributed all over the model, not just
#	DOFs 1, 2 and 3.
#
#

*Heading
** Job name: xhex8_beam Model name: Model-1
** Generated by: Abaqus/CAE Student Edition 2021
*Preprint, echo=NO, model=NO, history=NO, contact=NO
**
** PARTS
**
*Part, name=Part-1
*Node
      1,        -100.,         -10.,           5.
      2,        -100.,          -5.,           5.
      3,        -100.,           0.,           5.
      4,        -100.,           5.,           5.
      5,        -100.,          10.,           5.
      6,        -100.,         -10.,           0.
      7,        -100.,          -5.,           0.
      8,        -100.,           0.,           0.
      9,        -100.,           5.,           0.
     10,        -100.,          10.,           0.
     11,         -95.,         -10.,           5.
     12,         -95.,          -5.,           5.
     13,         -95.,           0.,           5.
     14,         -95.,           5.,           5.
     15,         -95.,          10.,           5.
     16,         -95.,         -10.,           0.
     17,         -95.,          -5.,           0.
     18,         -95.,           0.,           0.
     19,         -95.,           5.,           0.
     20,         -95.,          10.,           0.
** ... 390 like lines cut
*Element, type=C3D8R
  1,  11,  12,  17,  16,   1,   2,   7,   6
  2,  12,  13,  18,  17,   2,   3,   8,   7
  3,  13,  14,  19,  18,   3,   4,   9,   8
  4,  14,  15,  20,  19,   4,   5,  10,   9
  5,  21,  22,  27,  26,  11,  12,  17,  16
  6,  22,  23,  28,  27,  12,  13,  18,  17
  7,  23,  24,  29,  28,  13,  14,  19,  18
  8,  24,  25,  30,  29,  14,  15,  20,  19
  9,  31,  32,  37,  36,  21,  22,  27,  26
 10,  32,  33,  38,  37,  22,  23,  28,  27
 11,  33,  34,  39,  38,  23,  24,  29,  28
 12,  34,  35,  40,  39,  24,  25,  30,  29
 13,  41,  42,  47,  46,  31,  32,  37,  36
 14,  42,  43,  48,  47,  32,  33,  38,  37
 15,  43,  44,  49,  48,  33,  34,  39,  38
 16,  44,  45,  50,  49,  34,  35,  40,  39
 17,  51,  52,  57,  56,  41,  42,  47,  46
 18,  52,  53,  58,  57,  42,  43,  48,  47
 19,  53,  54,  59,  58,  43,  44,  49,  48
 20,  54,  55,  60,  59,  44,  45,  50,  49
** ... 140 like lines cut
*Nset, nset=Set-1, generate
   1,  410,    1
*Elset, elset=Set-1, generate
   1,  160,    1
** Section: Section-1
*Solid Section, elset=Set-1, material=Material-1
,
*End Part
**  
**
** ASSEMBLY
**
*Assembly, name=Assembly
**  
*Instance, name=Part-1-1, part=Part-1
*End Instance
**  
*Nset, nset=Set-1, instance=Part-1-1, generate
  1,  10,   1
*Elset, elset=Set-1, instance=Part-1-1, generate
 1,  4,  1
*End Assembly
** 
** MATERIALS
** 
*Material, name=Material-1
*Density
 2.7e-09,
*Elastic
68900., 0.35
** ----------------------------------------------------------------
** 
** STEP: Step-1
** 
*Step, name=Step-1, nlgeom=NO, perturbation
*Frequency, eigensolver=Lanczos, sim, acoustic coupling=on, normalization=mass
, , 4000., , , 
** 
** BOUNDARY CONDITIONS
** 
** Name: BC-1 Type: Displacement/Rotation
*Boundary
Set-1, 1, 1
Set-1, 2, 2
Set-1, 3, 3
Set-1, 4, 4
Set-1, 5, 5
Set-1, 6, 6
** 
** OUTPUT REQUESTS
** 
*Restart, write, frequency=0
** 
** FIELD OUTPUT: F-Output-1
** 
*Output, field, variable=PRESELECT
*End Step
