*Heading
** Job name: xhex8_arch Model name: Model-2
** Generated by: Abaqus/CAE Student Edition 2021
*Preprint, echo=NO, model=NO, history=NO, contact=NO
**
** PARTS
**
*Part, name=Part-1
*Node
      1,           0.,         -35.,           5.
      2,    4.7658329,  -34.6740074,           5.
      3,   9.44288731,  -33.7021065,           5.
      4,   13.9440384,  -32.1023941,           5.
      5,   18.1854382,  -29.9046783,           5.
      6,   22.0880775,  -27.1498947,           5.
      7,    25.579258,  -23.8893604,           5.
      8,   28.5939465,  -20.1838112,           5.
      9,    31.075983,  -16.1022758,           5.
     10,   32.9791336,  -11.7207861,           5.
     11,   34.2679443,  -7.12096024,           5.
     12,   34.9184074,  -2.38848448,           5.
     13,   34.9184074,   2.38848448,           5.
     14,   34.2679443,   7.12096024,           5.
     15,   32.9791336,   11.7207861,           5.
     16,    31.075983,   16.1022758,           5.
     17,   28.5939465,   20.1838112,           5.
     18,    25.579258,   23.8893604,           5.
     19,   22.0880775,   27.1498947,           5.
     20,   18.1854382,   29.9046783,           5.
** ... 172 like lines cut
*Element, type=C3D8R
 1,  49,  50,  74,  73,   1,   2,  26,  25
 2,  50,  51,  75,  74,   2,   3,  27,  26
 3,  51,  52,  76,  75,   3,   4,  28,  27
 4,  52,  53,  77,  76,   4,   5,  29,  28
 5,  53,  54,  78,  77,   5,   6,  30,  29
 6,  54,  55,  79,  78,   6,   7,  31,  30
 7,  55,  56,  80,  79,   7,   8,  32,  31
 8,  56,  57,  81,  80,   8,   9,  33,  32
 9,  57,  58,  82,  81,   9,  10,  34,  33
10,  58,  59,  83,  82,  10,  11,  35,  34
11,  59,  60,  84,  83,  11,  12,  36,  35
12,  60,  61,  85,  84,  12,  13,  37,  36
13,  61,  62,  86,  85,  13,  14,  38,  37
14,  62,  63,  87,  86,  14,  15,  39,  38
15,  63,  64,  88,  87,  15,  16,  40,  39
16,  64,  65,  89,  88,  16,  17,  41,  40
17,  65,  66,  90,  89,  17,  18,  42,  41
18,  66,  67,  91,  90,  18,  19,  43,  42
19,  67,  68,  92,  91,  19,  20,  44,  43
20,  68,  69,  93,  92,  20,  21,  45,  44
** ... 49 like lines cut
*Nset, nset=Set-1, generate
   1,  192,    1
*Elset, elset=Set-1, generate
  1,  69,   1
** Section: Section-1
*Solid Section, elset=Set-1, material=Material-1
,
*End Part
**  
**
** ASSEMBLY
**
*Assembly, name=Assembly
**  
*Instance, name=Part-1-1, part=Part-1
*End Instance
**  
*Nset, nset=Set-1, instance=Part-1-1, generate
  24,  192,   24
*Elset, elset=Set-1, instance=Part-1-1, generate
 23,  69,  23
*Nset, nset=Set-2, instance=Part-1-1
   1,  25, 145, 169
*End Assembly
** 
** MATERIALS
** 
*Material, name=Material-1
*Density
 2.7e-09,
*Elastic
69000., 0.29
*Plastic
100.,     0.
150., 0.0015
200., 0.0025
250.,  0.003
260.,  0.004
270.,  0.005
280.,  0.007
290.,   0.01
300.,   0.02
310.,   0.04
320.,   0.06
** 
** BOUNDARY CONDITIONS
** 
** Name: BC-1 Type: Displacement/Rotation
*Boundary
Set-1, 1, 1
Set-1, 2, 2
Set-1, 3, 3
Set-1, 4, 4
Set-1, 5, 5
Set-1, 6, 6
** ----------------------------------------------------------------
** 
** STEP: Step-1
** 
*Step, name=Step-1, nlgeom=YES
*Static
0.05, 1., 1e-05, 1.
** 
** LOADS
** 
** Name: Load-1   Type: Concentrated force
*Cload
Set-2, 1, 20.
Set-2, 2, 20.
Set-2, 3, 70.
** 
** OUTPUT REQUESTS
** 
*Restart, write, frequency=0
** 
** FIELD OUTPUT: F-Output-1
** 
*Output, field, variable=PRESELECT
** 
** HISTORY OUTPUT: H-Output-1
** 
*Output, history, variable=PRESELECT
*End Step
