*Heading
** Job name: xquad4_plate_with_hole Model name: Model-1
** Generated by: Abaqus/CAE Student Edition 2021
*Preprint, echo=NO, model=NO, history=NO, contact=NO
**
** PARTS
**
*Part, name=Part-1
*Node
      1,           0.,   28.4007969
      2,           0.,          25.
      3,   17.9312973,   17.4203491
      4,    22.145462,   21.4620724
      5,          25.,           0.
      6,   28.6318817,           0.
      7,          75.,           0.
      8,          75.,   24.4023266
      9,          75.,          50.
     10,   25.2185612,          50.
     11,           0.,          50.
     12,   3.02838659,   24.8158989
     13,   6.07621765,   24.2503529
     14,   9.12818718,   23.2739391
     15,   12.1583261,   21.8443375
     16,   15.1229115,   19.9072227
     17,   17.7467251,   23.6817741
     18,   13.9074383,   25.3537064
     19,   10.2996826,   26.6372204
     20,   6.80145788,   27.5571404
** ... 191 like lines cut
*Element, type=CPS4R
  1,   1,   2,  12,  21
  2,  21,  12,  13,  20
  3,  20,  13,  14,  19
  4,  19,  14,  15,  18
  5,  18,  15,  16,  17
  6,  17,  16,   3,   4
  7,   3,  22,  31,   4
  8,  22,  23,  30,  31
  9,  23,  24,  29,  30
 10,  24,  25,  28,  29
 11,  25,  26,  27,  28
 12,  26,   5,   6,  27
 13,   6,  32,  87,  27
 14,  32,  33,  88,  87
 15,  33,  34,  89,  88
 16,  34,  35,  90,  89
 17,  35,  36,  91,  90
 18,  36,  37,  92,  91
 19,  37,  38,  93,  92
 20,  38,  39,  94,  93
** ... 160 like lines cut
*Nset, nset=Set-1, generate
   1,  211,    1
*Elset, elset=Set-1, generate
   1,  180,    1
** Section: Section-2
*Solid Section, elset=Set-1, material=Material-1, ref node=Part-1-RefPt_
5., 
*End Part
**  
**
** ASSEMBLY
**
*Assembly, name=Assembly
**  
*Instance, name=Part-1-1, part=Part-1
*End Instance
**  
*Nset, nset=Set-1, instance=Part-1-1
  5,  6,  7, 32, 33, 34, 35, 36, 37, 38, 39, 40, 41
*Elset, elset=Set-1, instance=Part-1-1, generate
 12,  23,   1
*Nset, nset=Set-2, instance=Part-1-1
  1,  2, 11, 82, 83, 84, 85, 86
*Elset, elset=Set-2, instance=Part-1-1
   1, 150, 156, 162, 168, 174, 180
*Elset, elset=_Surf-1_S2, internal, instance=Part-1-1, generate
 23,  78,  11
*Elset, elset=_Surf-1_S1, internal, instance=Part-1-1, generate
 79,  84,   1
*Surface, type=ELEMENT, name=Surf-1
_Surf-1_S2, S2
_Surf-1_S1, S1
*End Assembly
** 
** MATERIALS
** 
*Material, name=Material-1
*Elastic
68900., 0.29
** ----------------------------------------------------------------
** 
** STEP: Step-1
** 
*Step, name=Step-1, nlgeom=NO
*Static
1., 1., 1e-05, 1.
** 
** BOUNDARY CONDITIONS
** 
** Name: BC-1 Type: Symmetry/Antisymmetry/Encastre
*Boundary
Set-1, YSYMM
** Name: BC-2 Type: Symmetry/Antisymmetry/Encastre
*Boundary
Set-2, XSYMM
** 
** LOADS
** 
** Name: Load-1   Type: Surface traction
*Dsload
Surf-1, TRVEC, 50., 1., 0., 0.
** 
** OUTPUT REQUESTS
** 
*Restart, write, frequency=0
** 
** FIELD OUTPUT: F-Output-1
** 
*Output, field, variable=PRESELECT
** 
** HISTORY OUTPUT: H-Output-1
** 
*Output, history, variable=PRESELECT
*End Step
