*Heading
** Job name: xtet4_crank Model name: Model-1
** Generated by: Abaqus/CAE Student Edition 2021
*Preprint, echo=NO, model=NO, history=NO, contact=NO
**
** PARTS
**
*Part, name=Part-1
*Node
      1,   20.5737591,   47.9669914,          95.
      2,   20.5737591,   47.9669914,          19.
      3, -0.197773337,   64.6658096,          95.
      4,   24.5588932,   47.6224556,          15.
      5, -0.197773337,   64.6658096,           6.
      6,  -60.7562332,  -27.1146049,          15.
      7,   35.8810577,  -42.1146049,          15.
      8,   30.6003513,   51.3813934,          15.
      9,  -27.3820229,   60.3813934,          15.
     10, -0.536117673,   70.6562576,           0.
     11,   30.6003513,   51.3813934,           0.
     12,  -27.3820229,   60.3813934,           0.
     13,  -60.7562332,  -27.1146049,           0.
     14,   35.8810577,  -42.1146049,           0.
     15,  -6.71830606,   -6.6274581,           0.
     16,  -7.46918583,  -10.5563478,          -4.
     17,  -7.46918583,  -10.5563478,         -40.
     18,  -5.12961483,  -21.5757141,         -40.
     19,  -5.12961483,  -21.5757141,          -4.
     20,  -6.55517769,  -25.3130627,           0.
** ... 837 like lines cut
*Element, type=C3D4
   1, 708, 709, 508, 710
   2, 708, 591, 709, 710
   3, 708, 711, 508, 712
   4, 708, 591, 711, 712
   5, 708, 597, 713, 714
   6, 708, 714, 584, 597
   7, 708, 709, 584, 714
   8, 713, 712, 715, 597
   9, 713, 585, 715, 542
  10, 713, 585, 716, 602
  11, 713, 714, 602, 716
  12, 574, 717, 541, 718
  13, 405, 406, 719, 302
  14, 720, 718, 700, 721
  15, 720, 722, 523, 723
  16, 264, 720, 700, 721
  17, 720, 721, 264, 723
  18, 724, 725, 726, 727
  19, 303, 728, 302, 405
  20, 724, 263, 729, 248
** ... 2843 like lines cut
*Nset, nset=Set-4, generate
   1,  857,    1
*Elset, elset=Set-4, generate
    1,  2863,     1
** Section: Section-1
*Solid Section, elset=Set-4, material=Material-1
,
*End Part
**  
**
** ASSEMBLY
**
*Assembly, name=Assembly
**  
*Instance, name=Part-1-1, part=Part-1
*End Instance
**  
*Nset, nset=Set-1, instance=Part-1-1
  17,  18, 209, 210, 211, 212, 213, 214, 215, 216, 217, 218, 219, 220, 221, 222
 223, 224, 225, 226, 227, 228, 229, 230, 231, 232, 233, 234, 235, 236, 237, 238
 239, 240, 241, 242, 669
*Elset, elset=Set-1, instance=Part-1-1
   94,  120,  121,  546,  549,  550, 1200, 1202, 1206, 1215, 1217, 1219, 1220, 1226, 1232, 1236
 1242, 1331, 1339, 1349, 1350, 1368, 1376, 1378, 1384, 1392, 1395, 1397, 1408, 1411, 1412, 1415
 1418, 1453, 1617, 1680, 1723, 2200
*Nset, nset=Set-2, instance=Part-1-1
 1, 3
*End Assembly
** 
** MATERIALS
** 
*Material, name=Material-1
*Density
 2.7e-09,
*Elastic
69000., 0.29
** ----------------------------------------------------------------
** 
** STEP: Step-1
** 
*Step, name=Step-1, nlgeom=NO
*Static
1., 1., 1e-05, 1.
** 
** BOUNDARY CONDITIONS
** 
** Name: BC-1 Type: Displacement/Rotation
*Boundary
Set-1, 1, 1
Set-1, 2, 2
Set-1, 3, 3
** 
** LOADS
** 
** Name: Load-1   Type: Concentrated force
*Cload
Set-2, 1, 1000.
Set-2, 2, 200.
Set-2, 3, 100.
** 
** OUTPUT REQUESTS
** 
*Restart, write, frequency=0
** 
** FIELD OUTPUT: F-Output-1
** 
*Output, field, variable=PRESELECT
** 
** HISTORY OUTPUT: H-Output-1
** 
*Output, history, variable=PRESELECT
*End Step
