*Heading
** Job name: xtet10_beam Model name: Model-1
** Generated by: Abaqus/CAE Student Edition 2021
*Preprint, echo=NO, model=NO, history=NO, contact=NO
**
** PARTS
**
*Part, name=Part-1
*Node
      1,        -100.,         -10.,           5.
      2,        -100.,          10.,           5.
      3,        -100.,          10.,           0.
      4,        -100.,         -10.,           0.
      5,         100.,          10.,           5.
      6,         100.,          10.,           0.
      7,         100.,         -10.,           0.
      8,         100.,         -10.,           5.
      9,        -100.,           0.,           5.
     10,        -100.,           0.,           0.
     11,         -90.,          10.,           5.
     12,         -80.,          10.,           5.
     13,         -70.,          10.,           5.
     14,         -60.,          10.,           5.
     15,         -50.,          10.,           5.
     16,         -40.,          10.,           5.
     17,         -30.,          10.,           5.
     18,         -20.,          10.,           5.
     19,         -10.,          10.,           5.
     20,           0.,          10.,           5.
** ... 611 like lines cut
*Element, type=C3D10
  1, 127,   5,  88,  49, 131, 130, 129, 133, 132, 134
  2, 127, 108,  49,  88, 136, 135, 133, 129, 137, 134
  3, 127,   5,  49,   6, 131, 132, 133, 139, 138, 140
  4, 127, 108,  29, 107, 136, 142, 141, 144, 143, 145
  5, 127,   6,  49,  30, 139, 140, 133, 147, 146, 148
  6, 127,  30,  49, 107, 147, 148, 133, 144, 149, 150
  7,  89,  68, 126, 128, 153, 152, 151, 155, 154, 156
  8, 128, 126,   9,  87, 156, 158, 157, 160, 159, 161
  9, 128,  87,   9,   1, 160, 161, 157, 163, 162, 164
 10, 128,  87,   1,   4, 160, 162, 163, 166, 165, 167
 11, 128,   4,  10,  68, 166, 169, 168, 154, 170, 171
 12, 128,  68,  10,  89, 154, 171, 168, 155, 153, 172
 13, 117, 116,  58,  99, 175, 174, 173, 177, 176, 178
 14, 117,  40,  98,  97, 181, 180, 179, 183, 182, 184
 15,  39,  40,  98, 117, 186, 180, 185, 187, 181, 179
 16,  60,  78,  59,  97, 190, 189, 188, 192, 191, 193
 17, 116,  76,  77,  58, 196, 195, 194, 174, 197, 198
 18, 117,  58,  77,  59, 173, 198, 199, 201, 200, 202
 19, 118,  78,  79,  60, 205, 204, 203, 206, 190, 207
 20, 115,  38, 100,  99, 210, 209, 208, 212, 211, 213
** ... 232 like lines cut
*Nset, nset=Set-1, generate
   1,  631,    1
*Elset, elset=Set-1, generate
   1,  252,    1
** Section: Section-1
*Solid Section, elset=Set-1, material=Material-1
,
*End Part
**  
**
** ASSEMBLY
**
*Assembly, name=Assembly
**  
*Instance, name=Part-1-1, part=Part-1
*End Instance
**  
*Nset, nset=Set-1, instance=Part-1-1
   1,   2,   3,   4,   9,  10, 164, 167, 169, 296, 538, 608, 610, 613, 626
*Elset, elset=Set-1, instance=Part-1-1
  44, 210, 216, 240
*End Assembly
** 
** MATERIALS
** 
*Material, name=Material-1
*Density
 2.7e-09,
*Elastic
68900., 0.35
** ----------------------------------------------------------------
** 
** STEP: Step-1
** 
*Step, name=Step-1, nlgeom=NO, perturbation
*Frequency, eigensolver=Lanczos, sim, acoustic coupling=on, normalization=mass
, , 4000., , , 
** 
** BOUNDARY CONDITIONS
** 
** Name: BC-1 Type: Displacement/Rotation
*Boundary
Set-1, 1, 1
Set-1, 2, 2
Set-1, 3, 3
Set-1, 4, 4
Set-1, 5, 5
Set-1, 6, 6
** 
** OUTPUT REQUESTS
** 
*Restart, write, frequency=0
** 
** FIELD OUTPUT: F-Output-1
** 
*Output, field, variable=PRESELECT
*End Step
