*Heading
** Job name: Job-1 Model name: Model-1
** Generated by: Abaqus/CAE Student Edition 2021
*Preprint, echo=NO, model=NO, history=NO, contact=NO
**
** PARTS
**
*Part, name=Part-1
*Node
      1,   6.75994205,   100.401855
      2,   3.33813429,   105.111565
      3,  -7.49309254,   108.630844
      4,  -13.0296946,   106.831894
      5,  -17.3559322,   102.936531
      6,  -19.7237606,   97.6183014
      7,  -17.3559322,   86.4785461
      8,  -13.0296946,   82.5831833
      9,  -7.49309254,   80.7842331
     10,  -1.70345616,    81.392746
     11,   6.75994205,   89.0132294
     12,   7.97030592,   94.7075424
     13,  -36.0296936,   94.7074356
     14,  -36.0295525,   54.7074318
     15,  -35.1460495,   49.4201965
     16,  -32.5915794,   44.7074318
     17,   -25.217104,        35.25
     18,  -24.0791798,   25.2224979
     19,  -23.2354774,   30.3965588
     20,        -27.5,        21.25
** ... 281 like lines cut
*Element, type=CPS3
  1, 129, 125,  72
  2, 130,   9, 128
  3, 175, 155,  59
  4, 185, 155, 175
  5, 164, 156, 141
  6, 152, 121, 123
  7, 160, 159, 145
  8, 115,  56,  57
  9, 173, 158, 159
 10, 161, 157, 150
 11, 161, 150, 149
 12, 146, 100, 144
 13, 176, 148,  21
 14, 176, 163, 148
 15, 242, 228,  92
 16, 290, 250, 289
 17, 283, 267, 270
 18, 251,  91, 250
 19, 291, 289, 265
 20, 290, 289, 275
** ... 468 like lines cut
*Nset, nset=Set-8, generate
   1,  301,    1
*Elset, elset=Set-8, generate
   1,  488,    1
** Section: Section-4
*Solid Section, elset=Set-8, material=Material-1, ref node=Part-1-RefPt_
25., 
*End Part
**  
**
** ASSEMBLY
**
*Assembly, name=Assembly
**  
*Instance, name=Part-1-1, part=Part-1
*End Instance
**  
*Nset, nset=Set-1, instance=Part-1-1
  1,  2,  3,  4,  5,  6,  7,  8,  9, 10, 11, 12, 70, 71, 72
*Elset, elset=Set-1, instance=Part-1-1
  49,  70,  71, 133, 135, 136, 137, 139, 141, 143, 147, 151, 157, 159, 161
*Elset, elset=_Surf-1_S2, internal, instance=Part-1-1
  36,  81, 163, 211, 295, 365, 381, 425, 427, 429, 431, 433, 435, 437, 439, 441
 443, 445, 449
*Surface, type=ELEMENT, name=Surf-1
_Surf-1_S2, S2
*End Assembly
** 
** MATERIALS
** 
*Material, name=Material-1
*Density
 6.9e-07,
*Elastic
 2.1e+08, 0.29
** ----------------------------------------------------------------
** 
** STEP: Step-1
** 
*Step, name=Step-1, nlgeom=NO
*Static
1., 1., 1e-05, 1.
** 
** BOUNDARY CONDITIONS
** 
** Name: BC-1 Type: Displacement/Rotation
*Boundary
Set-1, 1, 1
Set-1, 2, 2
** 
** LOADS
** 
** Name: Load-1   Type: Pressure
*Dsload
Surf-1, P, 10.
** 
** OUTPUT REQUESTS
** 
*Restart, write, frequency=0
** 
** FIELD OUTPUT: F-Output-1
** 
*Output, field, variable=PRESELECT
** 
** HISTORY OUTPUT: H-Output-1
** 
*Output, history, variable=PRESELECT
*End Step
