*Heading
** Job name: xtri3_plate_with_hole Model name: Model-1
** Generated by: Abaqus/CAE Student Edition 2021
*Preprint, echo=NO, model=NO, history=NO, contact=NO
**
** PARTS
**
*Part, name=Part-1
*Node
      1,   7.04331398,   23.9873238
      2,    10.385375,    22.740799
      3,   16.3715191,   18.8937397
      4,   18.8937397,   16.3715191
      5,    22.740799,    10.385375
      6,   23.9873238,   7.04331398
      7,           0.,          25.
      8,          25.,           0.
      9,          75.,           0.
     10,          75.,          50.
     11,           0.,          50.
     12,   3.55787086,   24.7455368
     13,   13.5160208,   21.0313377
     14,   21.0313377,   13.5160208
     15,   24.7455368,   3.55787086
     16,   69.8667297,           0.
     17,   64.8599243,           0.
     18,   59.9764709,           0.
     19,   55.2133293,           0.
     20,   50.5675278,           0.
** ... 184 like lines cut
*Element, type=CPS3
  1,  68,  56,  54
  2, 110,  98,  36
  3,  62,  13,  57
  4,  60,   4,  55
  5,  55,   4,  14
  6, 132,  44,  43
  7,  59,   6,  15
  8,  67,  15,   8
  9,  73,  61,  71
 10,  56,   1,  54
 11,  89,  74,  70
 12,  61,   5,  58
 13,  67,   8,  25
 14,  16,   9,  34
 15, 103,  16,  34
 16,  96,  82,  18
 17,  82,  81,  19
 18,  81,  80,  20
 19,  80,  66,  21
 20,  72,  71,  58
** ... 333 like lines cut
*Nset, nset=Set-1, generate
   1,  204,    1
*Elset, elset=Set-1, generate
   1,  353,    1
** Section: Section-2
*Solid Section, elset=Set-1, material=Material-1, ref node=Part-1-RefPt_
5., 
*End Part
**  
**
** ASSEMBLY
**
*Assembly, name=Assembly
**  
*Instance, name=Part-1-1, part=Part-1
*End Instance
**  
*Nset, nset=Set-1, instance=Part-1-1
  8,  9, 16, 17, 18, 19, 20, 21, 22, 23, 24, 25
*Elset, elset=Set-1, instance=Part-1-1
  13,  14,  66,  76,  78,  79, 100, 104, 106, 108, 177
*Nset, nset=Set-2, instance=Part-1-1
  7, 11, 49, 50, 51, 52, 53
*Elset, elset=Set-2, instance=Part-1-1
 33, 34, 47, 71, 73, 96
*Elset, elset=_Surf-1_S2, internal, instance=Part-1-1
  14,  24,  30, 137, 142, 145, 147, 150, 174, 227
*Surface, type=ELEMENT, name=Surf-1
_Surf-1_S2, S2
*End Assembly
** 
** MATERIALS
** 
*Material, name=Material-1
*Elastic
68900., 0.29
** ----------------------------------------------------------------
** 
** STEP: Step-1
** 
*Step, name=Step-1, nlgeom=NO
*Static
1., 1., 1e-05, 1.
** 
** BOUNDARY CONDITIONS
** 
** Name: BC-1 Type: Symmetry/Antisymmetry/Encastre
*Boundary
Set-1, YSYMM
** Name: BC-2 Type: Symmetry/Antisymmetry/Encastre
*Boundary
Set-2, XSYMM
** 
** LOADS
** 
** Name: Load-1   Type: Surface traction
*Dsload
Surf-1, TRVEC, 50., 1., 0., 0.
** 
** OUTPUT REQUESTS
** 
*Restart, write, frequency=0
** 
** FIELD OUTPUT: F-Output-1
** 
*Output, field, variable=PRESELECT
** 
** HISTORY OUTPUT: H-Output-1
** 
*Output, history, variable=PRESELECT
*End Step
